data_image0
_chemical_formula_structural       Ar2
_chemical_formula_sum              "Ar2"
_cell_length_a       7.622611101190982
_cell_length_b       7.622611101190982
_cell_length_c       7.622611101190982
_cell_angle_alpha    60.00000000000001
_cell_angle_beta     60.00000000000001
_cell_angle_gamma    60.00000000000001

_space_group_name_H-M_alt    "P 1"
_space_group_IT_number       1

loop_
  _space_group_symop_operation_xyz
  'x, y, z'

loop_
  _atom_site_type_symbol
  _atom_site_label
  _atom_site_symmetry_multiplicity
  _atom_site_fract_x
  _atom_site_fract_y
  _atom_site_fract_z
  _atom_site_occupancy
  Ar  Ar1       1.0  0.005634349999999999  0.00806267  0.002011820000000001  1.0000
  Ar  Ar2       1.0  0.25442436  0.25343569  0.2554338  1.0000
