1
Lattice="0.0 2.9 2.9 2.9 0.0 2.9 2.9 2.9 0.0" Properties=species:S:1:pos:R:3 relative_total_energy=-0.04176354 pbc="T T T"
Ar       0.00890628       0.01151967       0.01609845
1
Lattice="0.0 2.9 2.9 2.9 0.0 2.9 2.9 2.9 0.0" Properties=species:S:1:pos:R:3 relative_total_energy=-0.0417869 pbc="T T T"
Ar       0.01817807       0.02081826       0.02425401
1
Lattice="0.0 2.9 2.9 2.9 0.0 2.9 2.9 2.9 0.0" Properties=species:S:1:pos:R:3 relative_total_energy=-0.0418092 pbc="T T T"
Ar       0.02408995       0.02521240       0.03074119
1
Lattice="0.0 2.9 2.9 2.9 0.0 2.9 2.9 2.9 0.0" Properties=species:S:1:pos:R:3 relative_total_energy=-0.04182312 pbc="T T T"
Ar       0.02831079       0.03413683       0.03935578
1
Lattice="0.0 2.9 2.9 2.9 0.0 2.9 2.9 2.9 0.0" Properties=species:S:1:pos:R:3 relative_total_energy=-0.04182469 pbc="T T T"
Ar       0.03463966       0.03995400       0.04179686
1
Lattice="0.0 2.9 2.9 2.9 0.0 2.9 2.9 2.9 0.0" Properties=species:S:1:pos:R:3 relative_total_energy=-0.04181609 pbc="T T T"
Ar       0.03695812       0.04768458       0.04376808
1
Lattice="0.0 2.9 2.9 2.9 0.0 2.9 2.9 2.9 0.0" Properties=species:S:1:pos:R:3 relative_total_energy=-0.04180092 pbc="T T T"
Ar       0.04221307       0.05658599       0.04415256
1
Lattice="0.0 2.9 2.9 2.9 0.0 2.9 2.9 2.9 0.0" Properties=species:S:1:pos:R:3 relative_total_energy=-0.04178082 pbc="T T T"
Ar       0.04411413       0.06496296       0.05355729
1
Lattice="0.0 2.9 2.9 2.9 0.0 2.9 2.9 2.9 0.0" Properties=species:S:1:pos:R:3 relative_total_energy=-0.04177625 pbc="T T T"
Ar       0.04731576       0.07172451       0.05434719
1
Lattice="0.0 3.19 3.19 3.19 0.0 3.19 3.19 3.19 0.0" Properties=species:S:1:pos:R:3 relative_total_energy=-0.03372799 pbc="T T T"
Ar       0.00866066       3.19247168       3.19154000
1
Lattice="0.0 3.19 3.19 3.19 0.0 3.19 3.19 3.19 0.0" Properties=species:S:1:pos:R:3 relative_total_energy=-0.03373024 pbc="T T T"
Ar       0.01255539       0.00634245       0.00922800
1
Lattice="0.0 3.19 3.19 3.19 0.0 3.19 3.19 3.19 0.0" Properties=species:S:1:pos:R:3 relative_total_energy=-0.03374552 pbc="T T T"
Ar       0.01788161       0.01566124       0.01311881
1
Lattice="0.0 3.19 3.19 3.19 0.0 3.19 3.19 3.19 0.0" Properties=species:S:1:pos:R:3 relative_total_energy=-0.0337551 pbc="T T T"
Ar       0.01810296       0.02147884       0.01589995
1
Lattice="0.0 3.19 3.19 3.19 0.0 3.19 3.19 3.19 0.0" Properties=species:S:1:pos:R:3 relative_total_energy=-0.0337639 pbc="T T T"
Ar       0.01831583       0.02631268       0.01965656
1
Lattice="0.0 3.19 3.19 3.19 0.0 3.19 3.19 3.19 0.0" Properties=species:S:1:pos:R:3 relative_total_energy=-0.03377558 pbc="T T T"
Ar       0.02232962       0.03572841       0.02804887
1
Lattice="0.0 3.19 3.19 3.19 0.0 3.19 3.19 3.19 0.0" Properties=species:S:1:pos:R:3 relative_total_energy=-0.03377552 pbc="T T T"
Ar       0.02830646       0.04307007       0.03420143
1
Lattice="0.0 3.19 3.19 3.19 0.0 3.19 3.19 3.19 0.0" Properties=species:S:1:pos:R:3 relative_total_energy=-0.03377351 pbc="T T T"
Ar       0.03096740       0.04732611       0.03446342
1
Lattice="0.0 3.19 3.19 3.19 0.0 3.19 3.19 3.19 0.0" Properties=species:S:1:pos:R:3 relative_total_energy=-0.03376799 pbc="T T T"
Ar       0.03179572       0.05064616       0.04396436
1
Lattice="0.0 3.19 3.19 3.19 0.0 3.19 3.19 3.19 0.0" Properties=species:S:1:pos:R:3 relative_total_energy=-0.03376524 pbc="T T T"
Ar       0.03652585       0.05258501       0.05304287
1
Lattice="-2.115 2.115 2.115 2.115 -2.115 2.115 2.115 2.115 -2.115" Properties=species:S:1:pos:R:3 relative_total_energy=-0.01823728 pbc="T T T"
Ar       0.00550215       0.00164989       0.00217475
1
Lattice="-2.115 2.115 2.115 2.115 -2.115 2.115 2.115 2.115 -2.115" Properties=species:S:1:pos:R:3 relative_total_energy=-0.01819956 pbc="T T T"
Ar       0.01132060       0.00633297       0.00802573
1
Lattice="-2.115 2.115 2.115 2.115 -2.115 2.115 2.115 2.115 -2.115" Properties=species:S:1:pos:R:3 relative_total_energy=-0.01817069 pbc="T T T"
Ar       0.01934113       0.00776996       0.01160420
1
Lattice="-2.115 2.115 2.115 2.115 -2.115 2.115 2.115 2.115 -2.115" Properties=species:S:1:pos:R:3 relative_total_energy=-0.01816074 pbc="T T T"
Ar       0.02631587       0.01196305       0.01339952
1
Lattice="-2.115 2.115 2.115 2.115 -2.115 2.115 2.115 2.115 -2.115" Properties=species:S:1:pos:R:3 relative_total_energy=-0.01816033 pbc="T T T"
Ar       0.03334879       0.02136871       0.01576616
1
Lattice="-2.115 2.115 2.115 2.115 -2.115 2.115 2.115 2.115 -2.115" Properties=species:S:1:pos:R:3 relative_total_energy=-0.01816107 pbc="T T T"
Ar       0.03802962       0.02723974       0.01909162
1
Lattice="-2.115 2.115 2.115 2.115 -2.115 2.115 2.115 2.115 -2.115" Properties=species:S:1:pos:R:3 relative_total_energy=-0.01815791 pbc="T T T"
Ar       0.04029530       0.03404894       0.02754984
1
Lattice="-2.115 2.115 2.115 2.115 -2.115 2.115 2.115 2.115 -2.115" Properties=species:S:1:pos:R:3 relative_total_energy=-0.01816083 pbc="T T T"
Ar       0.04970673       0.04233925       0.02941665
1
Lattice="-2.115 2.115 2.115 2.115 -2.115 2.115 2.115 2.115 -2.115" Properties=species:S:1:pos:R:3 relative_total_energy=-0.01816631 pbc="T T T"
Ar       0.05295180       0.04847426       0.03445104
1
Lattice="-2.115 2.115 2.115 2.115 -2.115 2.115 2.115 2.115 -2.115" Properties=species:S:1:pos:R:3 relative_total_energy=-0.01818233 pbc="T T T"
Ar       0.05759481       0.05257740       0.03956245
1
Lattice="-2.35 2.35 2.35 2.35 -2.35 2.35 2.35 2.35 -2.35" Properties=species:S:1:pos:R:3 relative_total_energy=-0.04134148 pbc="T T T"
Ar       0.00986441       0.00227424       0.00636798
1
Lattice="-2.35 2.35 2.35 2.35 -2.35 2.35 2.35 2.35 -2.35" Properties=species:S:1:pos:R:3 relative_total_energy=-0.04129583 pbc="T T T"
Ar       0.01749006       0.00707218       0.01474484
1
Lattice="-2.35 2.35 2.35 2.35 -2.35 2.35 2.35 2.35 -2.35" Properties=species:S:1:pos:R:3 relative_total_energy=-0.04128323 pbc="T T T"
Ar       0.02707482       0.01283340       0.01660125
1
Lattice="-2.35 2.35 2.35 2.35 -2.35 2.35 2.35 2.35 -2.35" Properties=species:S:1:pos:R:3 relative_total_energy=-0.04128081 pbc="T T T"
Ar       0.02986220       0.01784120       0.02392902
1
Lattice="-2.35 2.35 2.35 2.35 -2.35 2.35 2.35 2.35 -2.35" Properties=species:S:1:pos:R:3 relative_total_energy=-0.04128356 pbc="T T T"
Ar       0.03877998       0.02038169       0.02528619
1
Lattice="-2.35 2.35 2.35 2.35 -2.35 2.35 2.35 2.35 -2.35" Properties=species:S:1:pos:R:3 relative_total_energy=-0.04128519 pbc="T T T"
Ar       0.04607213       0.02271642       0.03526565
1
Lattice="-2.35 2.35 2.35 2.35 -2.35 2.35 2.35 2.35 -2.35" Properties=species:S:1:pos:R:3 relative_total_energy=-0.04128642 pbc="T T T"
Ar       0.05365447       0.02332288       0.04379011
1
Lattice="-2.35 2.35 2.35 2.35 -2.35 2.35 2.35 2.35 -2.35" Properties=species:S:1:pos:R:3 relative_total_energy=-0.04128619 pbc="T T T"
Ar       0.05688410       0.02591331       0.05117698
1
Lattice="-2.35 2.35 2.35 2.35 -2.35 2.35 2.35 2.35 -2.35" Properties=species:S:1:pos:R:3 relative_total_energy=-0.04129361 pbc="T T T"
Ar       0.06406561       0.03399289       0.05332723
1
Lattice="-2.35 2.35 2.35 2.35 -2.35 2.35 2.35 2.35 -2.35" Properties=species:S:1:pos:R:3 relative_total_energy=-0.04129949 pbc="T T T"
Ar       0.06988322       0.03860185       0.06052364
1
Lattice="-2.585 2.585 2.585 2.585 -2.585 2.585 2.585 2.585 -2.585" Properties=species:S:1:pos:R:3 relative_total_energy=-0.03303584 pbc="T T T"
Ar       0.00050097       0.00455074       0.00430118
1
Lattice="-2.585 2.585 2.585 2.585 -2.585 2.585 2.585 2.585 -2.585" Properties=species:S:1:pos:R:3 relative_total_energy=-0.03301273 pbc="T T T"
Ar       0.00329303       0.00618389       0.01203778
1
Lattice="-2.585 2.585 2.585 2.585 -2.585 2.585 2.585 2.585 -2.585" Properties=species:S:1:pos:R:3 relative_total_energy=-0.03300004 pbc="T T T"
Ar       0.01037567       0.00663838       0.01429314
1
Lattice="-2.585 2.585 2.585 2.585 -2.585 2.585 2.585 2.585 -2.585" Properties=species:S:1:pos:R:3 relative_total_energy=-0.03299204 pbc="T T T"
Ar       0.01539101       0.01237990       0.01852693
1
Lattice="-2.585 2.585 2.585 2.585 -2.585 2.585 2.585 2.585 -2.585" Properties=species:S:1:pos:R:3 relative_total_energy=-0.03300131 pbc="T T T"
Ar       0.02309674       0.01880456       0.02780868
1
Lattice="-2.585 2.585 2.585 2.585 -2.585 2.585 2.585 2.585 -2.585" Properties=species:S:1:pos:R:3 relative_total_energy=-0.03300299 pbc="T T T"
Ar       0.02453953       0.02047716       0.02792780
1
Lattice="-2.585 2.585 2.585 2.585 -2.585 2.585 2.585 2.585 -2.585" Properties=species:S:1:pos:R:3 relative_total_energy=-0.03300714 pbc="T T T"
Ar       0.02851221       0.02335224       0.03530415
1
Lattice="-2.585 2.585 2.585 2.585 -2.585 2.585 2.585 2.585 -2.585" Properties=species:S:1:pos:R:3 relative_total_energy=-0.03300618 pbc="T T T"
Ar       0.02978902       0.03146085       0.04419978
1
Lattice="-2.585 2.585 2.585 2.585 -2.585 2.585 2.585 2.585 -2.585" Properties=species:S:1:pos:R:3 relative_total_energy=-0.03299848 pbc="T T T"
Ar       0.03548062       0.04092019       0.05198125
1
Lattice="-2.585 2.585 2.585 2.585 -2.585 2.585 2.585 2.585 -2.585" Properties=species:S:1:pos:R:3 relative_total_energy=-0.03299338 pbc="T T T"
Ar       0.03889161       0.04770460       0.05612637
2
Lattice="3.69 0.0 0.0 -1.845 3.19563374 0.0 0.0 0.0 6.02574477" Properties=species:S:1:pos:R:3 relative_total_energy=-0.02084138 pbc="T T T"
Ar       0.00820114       0.00939011       0.00863393
Ar       0.00159421       2.13415309       3.02056105
2
Lattice="3.69 0.0 0.0 -1.845 3.19563374 0.0 0.0 0.0 6.02574477" Properties=species:S:1:pos:R:3 relative_total_energy=-0.02083435 pbc="T T T"
Ar       0.01558776       0.01258527       0.01604782
Ar       0.00458219       2.13583559       3.02938738
2
Lattice="3.69 0.0 0.0 -1.845 3.19563374 0.0 0.0 0.0 6.02574477" Properties=species:S:1:pos:R:3 relative_total_energy=-0.02087572 pbc="T T T"
Ar       0.02252448       0.02019612       0.01938693
Ar       0.00597944       2.14127807       3.03544693
2
Lattice="3.69 0.0 0.0 -1.845 3.19563374 0.0 0.0 0.0 6.02574477" Properties=species:S:1:pos:R:3 relative_total_energy=-0.02097324 pbc="T T T"
Ar       0.02580734       0.02775881       0.02477449
Ar       0.01078539       2.14937475       3.04149726
2
Lattice="3.69 0.0 0.0 -1.845 3.19563374 0.0 0.0 0.0 6.02574477" Properties=species:S:1:pos:R:3 relative_total_energy=-0.02101357 pbc="T T T"
Ar       0.03576890       0.03674921       0.02546335
Ar       0.01359525       2.15373845       3.04474580
2
Lattice="3.69 0.0 0.0 -1.845 3.19563374 0.0 0.0 0.0 6.02574477" Properties=species:S:1:pos:R:3 relative_total_energy=-0.0210853 pbc="T T T"
Ar       0.03942621       0.03803584       0.02992023
Ar       0.01684950       2.16064128       3.04577530
2
Lattice="3.69 0.0 0.0 -1.845 3.19563374 0.0 0.0 0.0 6.02574477" Properties=species:S:1:pos:R:3 relative_total_energy=-0.02113971 pbc="T T T"
Ar       0.04346421       0.04232873       0.03476608
Ar       0.02282210       2.16666978       3.04768329
2
Lattice="3.69 0.0 0.0 -1.845 3.19563374 0.0 0.0 0.0 6.02574477" Properties=species:S:1:pos:R:3 relative_total_energy=-0.02115934 pbc="T T T"
Ar       0.04982131       0.04657093       0.03737541
Ar       0.02934701       2.16961468       3.05197236
2
Lattice="3.69 0.0 0.0 -1.845 3.19563374 0.0 0.0 0.0 6.02574477" Properties=species:S:1:pos:R:3 relative_total_energy=-0.02116085 pbc="T T T"
Ar       0.05209655       0.05322306       0.04737338
Ar       0.03610084       2.17861752       3.05584703
2
Lattice="3.69 0.0 0.0 -1.845 3.19563374 0.0 0.0 0.0 6.02574477" Properties=species:S:1:pos:R:3 relative_total_energy=-0.02117091 pbc="T T T"
Ar       0.05751262       0.05399602       0.05086566
Ar       0.04136776       2.17948379       3.06165121
2
Lattice="4.1 0.0 0.0 -2.05 3.55070416 0.0 0.0 0.0 6.69527196" Properties=species:S:1:pos:R:3 relative_total_energy=-0.08294173 pbc="T T T"
Ar       0.00625213       0.00506401       0.00331891
Ar       0.00686604       2.36832568       3.35668665
2
Lattice="4.1 0.0 0.0 -2.05 3.55070416 0.0 0.0 0.0 6.69527196" Properties=species:S:1:pos:R:3 relative_total_energy=-0.08293688 pbc="T T T"
Ar       0.01561487       0.01419760       0.01044496
Ar       0.00786776       2.36991511       3.36069069
2
Lattice="4.1 0.0 0.0 -2.05 3.55070416 0.0 0.0 0.0 6.69527196" Properties=species:S:1:pos:R:3 relative_total_energy=-0.08294368 pbc="T T T"
Ar       0.02166036       0.01679401       0.02010068
Ar       0.01284368       2.37225801       3.36546428
2
Lattice="4.1 0.0 0.0 -2.05 3.55070416 0.0 0.0 0.0 6.69527196" Properties=species:S:1:pos:R:3 relative_total_energy=-0.08296136 pbc="T T T"
Ar       0.02860486       0.02676638       0.02264776
Ar       0.01741075       2.38146868       3.37401796
2
Lattice="4.1 0.0 0.0 -2.05 3.55070416 0.0 0.0 0.0 6.69527196" Properties=species:S:1:pos:R:3 relative_total_energy=-0.0829749 pbc="T T T"
Ar       0.03775098       0.03256795       0.02890014
Ar       0.01927414       2.38559058       3.37909579
2
Lattice="4.1 0.0 0.0 -2.05 3.55070416 0.0 0.0 0.0 6.69527196" Properties=species:S:1:pos:R:3 relative_total_energy=-0.08295037 pbc="T T T"
Ar       0.04284592       0.03365098       0.03055802
Ar       0.02405980       2.39526600       3.38566820
2
Lattice="4.1 0.0 0.0 -2.05 3.55070416 0.0 0.0 0.0 6.69527196" Properties=species:S:1:pos:R:3 relative_total_energy=-0.08290916 pbc="T T T"
Ar       0.05111431       0.03792504       0.03401332
Ar       0.03350787       2.39758117       3.38661472
2
Lattice="4.1 0.0 0.0 -2.05 3.55070416 0.0 0.0 0.0 6.69527196" Properties=species:S:1:pos:R:3 relative_total_energy=-0.08290108 pbc="T T T"
Ar       0.05592004       0.04010226       0.04167057
Ar       0.03666327       2.40691370       3.39622136
2
Lattice="4.1 0.0 0.0 -2.05 3.55070416 0.0 0.0 0.0 6.69527196" Properties=species:S:1:pos:R:3 relative_total_energy=-0.08288726 pbc="T T T"
Ar       0.05996818       0.04317873       0.04240236
Ar       0.04382812       2.41293289       3.40390224
2
Lattice="4.1 0.0 0.0 -2.05 3.55070416 0.0 0.0 0.0 6.69527196" Properties=species:S:1:pos:R:3 relative_total_energy=-0.08289825 pbc="T T T"
Ar       0.06140847       0.04632550       0.04247226
Ar       0.04441985       2.42083800       3.41132670
2
Lattice="4.51 0.0 0.0 -2.255 3.90577457 0.0 0.0 0.0 7.36479916" Properties=species:S:1:pos:R:3 relative_total_energy=-0.06776484 pbc="T T T"
Ar       0.00248201       0.00543008       0.00097989
Ar       0.00217082       2.61229175       3.68872624
2
Lattice="4.51 0.0 0.0 -2.255 3.90577457 0.0 0.0 0.0 7.36479916" Properties=species:S:1:pos:R:3 relative_total_energy=-0.06771208 pbc="T T T"
Ar       0.00854399       0.01523389       0.00717899
Ar       0.00518765       2.61301588       3.69545243
2
Lattice="4.51 0.0 0.0 -2.255 3.90577457 0.0 0.0 0.0 7.36479916" Properties=species:S:1:pos:R:3 relative_total_energy=-0.06769405 pbc="T T T"
Ar       0.01848171       0.02103322       0.01426812
Ar       0.00748119       2.61639964       3.69626956
2
Lattice="4.51 0.0 0.0 -2.255 3.90577457 0.0 0.0 0.0 7.36479916" Properties=species:S:1:pos:R:3 relative_total_energy=-0.06768709 pbc="T T T"
Ar       0.01871483       0.02477261       0.01540178
Ar       0.01696150       2.61662841       3.70125796
2
Lattice="4.51 0.0 0.0 -2.255 3.90577457 0.0 0.0 0.0 7.36479916" Properties=species:S:1:pos:R:3 relative_total_energy=-0.06770455 pbc="T T T"
Ar       0.02406220       0.02558384       0.02531768
Ar       0.02495415       2.62657395       3.70549669
2
Lattice="4.51 0.0 0.0 -2.255 3.90577457 0.0 0.0 0.0 7.36479916" Properties=species:S:1:pos:R:3 relative_total_energy=-0.06772395 pbc="T T T"
Ar       0.03259659       0.02655079       0.03165715
Ar       0.03468077       2.62828328       3.70842921
2
Lattice="4.51 0.0 0.0 -2.255 3.90577457 0.0 0.0 0.0 7.36479916" Properties=species:S:1:pos:R:3 relative_total_energy=-0.06773952 pbc="T T T"
Ar       0.04094855       0.03396899       0.03861298
Ar       0.03871957       2.63454376       3.71636994
2
Lattice="4.51 0.0 0.0 -2.255 3.90577457 0.0 0.0 0.0 7.36479916" Properties=species:S:1:pos:R:3 relative_total_energy=-0.06774777 pbc="T T T"
Ar       0.04244521       0.04018694       0.04461868
Ar       0.03972864       2.64030791       3.72491274
2
Lattice="4.51 0.0 0.0 -2.255 3.90577457 0.0 0.0 0.0 7.36479916" Properties=species:S:1:pos:R:3 relative_total_energy=-0.06774783 pbc="T T T"
Ar       0.04820590       0.04619172       0.04745781
Ar       0.04084150       2.64467390       3.73026724
2
Lattice="4.51 0.0 0.0 -2.255 3.90577457 0.0 0.0 0.0 7.36479916" Properties=species:S:1:pos:R:3 relative_total_energy=-0.06774015 pbc="T T T"
Ar       0.05233210       0.05283607       0.05291056
Ar       0.04120679       2.65124165       3.73354524
1
Lattice="3.69 0.0 0.0 0.0 3.69 0.0 0.0 0.0 3.69" Properties=species:S:1:pos:R:3 relative_total_energy=-0.02958606 pbc="T T T"
Ar       0.00253595       0.00152482       0.00416107
1
Lattice="3.69 0.0 0.0 0.0 3.69 0.0 0.0 0.0 3.69" Properties=species:S:1:pos:R:3 relative_total_energy=-0.02956357 pbc="T T T"
Ar       0.00988429       0.00856150       0.00881168
1
Lattice="3.69 0.0 0.0 0.0 3.69 0.0 0.0 0.0 3.69" Properties=species:S:1:pos:R:3 relative_total_energy=-0.02955877 pbc="T T T"
Ar       0.01911560       0.00940216       0.01804358
1
Lattice="3.69 0.0 0.0 0.0 3.69 0.0 0.0 0.0 3.69" Properties=species:S:1:pos:R:3 relative_total_energy=-0.02956407 pbc="T T T"
Ar       0.01964246       0.01624969       0.02498861
1
Lattice="3.69 0.0 0.0 0.0 3.69 0.0 0.0 0.0 3.69" Properties=species:S:1:pos:R:3 relative_total_energy=-0.02957278 pbc="T T T"
Ar       0.02704814       0.02563399       0.03186736
1
Lattice="3.69 0.0 0.0 0.0 3.69 0.0 0.0 0.0 3.69" Properties=species:S:1:pos:R:3 relative_total_energy=-0.0295648 pbc="T T T"
Ar       0.03410992       0.02781245       0.03831508
1
Lattice="3.69 0.0 0.0 0.0 3.69 0.0 0.0 0.0 3.69" Properties=species:S:1:pos:R:3 relative_total_energy=-0.02952889 pbc="T T T"
Ar       0.04306824       0.03579267       0.04373082
1
Lattice="3.69 0.0 0.0 0.0 3.69 0.0 0.0 0.0 3.69" Properties=species:S:1:pos:R:3 relative_total_energy=-0.02950952 pbc="T T T"
Ar       0.05094779       0.03805305       0.05082565
1
Lattice="3.69 0.0 0.0 0.0 3.69 0.0 0.0 0.0 3.69" Properties=species:S:1:pos:R:3 relative_total_energy=-0.02950248 pbc="T T T"
Ar       0.05867853       0.04665998       0.05808606
1
Lattice="3.69 0.0 0.0 0.0 3.69 0.0 0.0 0.0 3.69" Properties=species:S:1:pos:R:3 relative_total_energy=-0.02952289 pbc="T T T"
Ar       0.06688107       0.05354116       0.05964760
1
Lattice="4.1 0.0 0.0 0.0 4.1 0.0 0.0 0.0 4.1" Properties=species:S:1:pos:R:3 relative_total_energy=-0.0376153 pbc="T T T"
Ar       0.00469823       0.00607927       0.00021980
1
Lattice="4.1 0.0 0.0 0.0 4.1 0.0 0.0 0.0 4.1" Properties=species:S:1:pos:R:3 relative_total_energy=-0.03759835 pbc="T T T"
Ar       0.00666648       0.01285227       0.00641998
1
Lattice="4.1 0.0 0.0 0.0 4.1 0.0 0.0 0.0 4.1" Properties=species:S:1:pos:R:3 relative_total_energy=-0.03759111 pbc="T T T"
Ar       0.01103306       0.01325403       0.01311504
1
Lattice="4.1 0.0 0.0 0.0 4.1 0.0 0.0 0.0 4.1" Properties=species:S:1:pos:R:3 relative_total_energy=-0.03759647 pbc="T T T"
Ar       0.01754447       0.01705862       0.01673497
1
Lattice="4.1 0.0 0.0 0.0 4.1 0.0 0.0 0.0 4.1" Properties=species:S:1:pos:R:3 relative_total_energy=-0.03761321 pbc="T T T"
Ar       0.01943847       0.02560200       0.02396245
1
Lattice="4.1 0.0 0.0 0.0 4.1 0.0 0.0 0.0 4.1" Properties=species:S:1:pos:R:3 relative_total_energy=-0.03761844 pbc="T T T"
Ar       0.02566469       0.02625808       0.02822190
1
Lattice="4.1 0.0 0.0 0.0 4.1 0.0 0.0 0.0 4.1" Properties=species:S:1:pos:R:3 relative_total_energy=-0.03761611 pbc="T T T"
Ar       0.03355514       0.02628047       0.03795403
1
Lattice="4.1 0.0 0.0 0.0 4.1 0.0 0.0 0.0 4.1" Properties=species:S:1:pos:R:3 relative_total_energy=-0.0375933 pbc="T T T"
Ar       0.03686220       0.03285621       0.04721252
1
Lattice="4.1 0.0 0.0 0.0 4.1 0.0 0.0 0.0 4.1" Properties=species:S:1:pos:R:3 relative_total_energy=-0.03756609 pbc="T T T"
Ar       0.03948845       0.04109541       0.05046743
1
Lattice="4.1 0.0 0.0 0.0 4.1 0.0 0.0 0.0 4.1" Properties=species:S:1:pos:R:3 relative_total_energy=-0.03755712 pbc="T T T"
Ar       0.04048729       0.04773528       0.05610612
1
Lattice="4.51 0.0 0.0 0.0 4.51 0.0 0.0 0.0 4.51" Properties=species:S:1:pos:R:3 relative_total_energy=-0.02616069 pbc="T T T"
Ar       0.00639094       0.00021197       0.00026970
1
Lattice="4.51 0.0 0.0 0.0 4.51 0.0 0.0 0.0 4.51" Properties=species:S:1:pos:R:3 relative_total_energy=-0.02615745 pbc="T T T"
Ar       0.01016076       0.00847691       0.00436036
1
Lattice="4.51 0.0 0.0 0.0 4.51 0.0 0.0 0.0 4.51" Properties=species:S:1:pos:R:3 relative_total_energy=-0.02616394 pbc="T T T"
Ar       0.01611170       0.01086468       0.01069858
1
Lattice="4.51 0.0 0.0 0.0 4.51 0.0 0.0 0.0 4.51" Properties=species:S:1:pos:R:3 relative_total_energy=-0.0261905 pbc="T T T"
Ar       0.02429014       0.01780967       0.01806977
1
Lattice="4.51 0.0 0.0 0.0 4.51 0.0 0.0 0.0 4.51" Properties=species:S:1:pos:R:3 relative_total_energy=-0.02620123 pbc="T T T"
Ar       0.02727756       0.02505991       0.02377334
1
Lattice="4.51 0.0 0.0 0.0 4.51 0.0 0.0 0.0 4.51" Properties=species:S:1:pos:R:3 relative_total_energy=-0.0262048 pbc="T T T"
Ar       0.03094609       0.03296657       0.02749228
1
Lattice="4.51 0.0 0.0 0.0 4.51 0.0 0.0 0.0 4.51" Properties=species:S:1:pos:R:3 relative_total_energy=-0.02619587 pbc="T T T"
Ar       0.03389612       0.03632047       0.03627686
1
Lattice="4.51 0.0 0.0 0.0 4.51 0.0 0.0 0.0 4.51" Properties=species:S:1:pos:R:3 relative_total_energy=-0.02618992 pbc="T T T"
Ar       0.03801357       0.03768371       0.03959194
1
Lattice="4.51 0.0 0.0 0.0 4.51 0.0 0.0 0.0 4.51" Properties=species:S:1:pos:R:3 relative_total_energy=-0.02618163 pbc="T T T"
Ar       0.04366185       0.04014383       0.04398026
1
Lattice="4.51 0.0 0.0 0.0 4.51 0.0 0.0 0.0 4.51" Properties=species:S:1:pos:R:3 relative_total_energy=-0.02618217 pbc="T T T"
Ar       0.04781313       0.04046521       0.05195750
2
Lattice="0.0 4.41 4.41 4.41 0.0 4.41 4.41 4.41 0.0" Properties=species:S:1:pos:R:3 relative_total_energy=-0.05841113 pbc="T T T"
Ar       4.41366921       4.41000251       0.00812035
Ar       2.20994758       2.20621178       2.20953586
2
Lattice="0.0 4.41 4.41 4.41 0.0 4.41 4.41 4.41 0.0" Properties=species:S:1:pos:R:3 relative_total_energy=-0.05840621 pbc="T T T"
Ar       4.41407669       4.41631384       0.01703623
Ar       2.21189468       2.20694543       2.21030117
2
Lattice="0.0 4.41 4.41 4.41 0.0 4.41 4.41 4.41 0.0" Properties=species:S:1:pos:R:3 relative_total_energy=-0.05840934 pbc="T T T"
Ar       4.41411294       4.41661231       0.02214398
Ar       2.21903950       2.20912212       2.21889538
2
Lattice="0.0 4.41 4.41 4.41 0.0 4.41 4.41 4.41 0.0" Properties=species:S:1:pos:R:3 relative_total_energy=-0.05843038 pbc="T T T"
Ar       4.41649712       4.42581369       0.02428102
Ar       2.21929832       2.21828129       2.21975427
2
Lattice="0.0 4.41 4.41 4.41 0.0 4.41 4.41 4.41 0.0" Properties=species:S:1:pos:R:3 relative_total_energy=-0.05848683 pbc="T T T"
Ar       0.01176046       0.02445702       0.02863298
Ar       2.22785500       2.22340306       2.22877382
2
Lattice="0.0 4.41 4.41 4.41 0.0 4.41 4.41 4.41 0.0" Properties=species:S:1:pos:R:3 relative_total_energy=-0.05851331 pbc="T T T"
Ar       0.01383488       0.03100812       0.03014508
Ar       2.23484000       2.22762559       2.23135778
2
Lattice="0.0 4.41 4.41 4.41 0.0 4.41 4.41 4.41 0.0" Properties=species:S:1:pos:R:3 relative_total_energy=-0.05853068 pbc="T T T"
Ar       0.01983719       0.03311570       0.03228164
Ar       2.24475919       2.23381251       2.23858092
2
Lattice="0.0 4.41 4.41 4.41 0.0 4.41 4.41 4.41 0.0" Properties=species:S:1:pos:R:3 relative_total_energy=-0.05853392 pbc="T T T"
Ar       0.02244293       0.03720117       0.03388909
Ar       2.24489758       2.24144120       2.24528561
2
Lattice="0.0 4.41 4.41 4.41 0.0 4.41 4.41 4.41 0.0" Properties=species:S:1:pos:R:3 relative_total_energy=-0.05853315 pbc="T T T"
Ar       0.02835476       0.04093922       0.03437754
Ar       2.25226051       2.24530943       2.24985521
2
Lattice="0.0 4.41 4.41 4.41 0.0 4.41 4.41 4.41 0.0" Properties=species:S:1:pos:R:3 relative_total_energy=-0.05853071 pbc="T T T"
Ar       0.03753298       0.04433651       0.04391227
Ar       2.26157964       2.25171028       2.25738758
2
Lattice="0.0 4.9 4.9 4.9 0.0 4.9 4.9 4.9 0.0" Properties=species:S:1:pos:R:3 relative_total_energy=-0.05572651 pbc="T T T"
Ar       4.90071618       4.90870372       0.00991628
Ar       2.45975443       2.45540872       2.45241276
2
Lattice="0.0 4.9 4.9 4.9 0.0 4.9 4.9 4.9 0.0" Properties=species:S:1:pos:R:3 relative_total_energy=-0.05574605 pbc="T T T"
Ar       0.01036987       0.00965427       0.01700310
Ar       2.46185462       2.46092739       2.45438016
2
Lattice="0.0 4.9 4.9 4.9 0.0 4.9 4.9 4.9 0.0" Properties=species:S:1:pos:R:3 relative_total_energy=-0.05580064 pbc="T T T"
Ar       0.01752191       0.01451963       0.02217392
Ar       2.46742102       2.46131709       2.45695937
2
Lattice="0.0 4.9 4.9 4.9 0.0 4.9 4.9 4.9 0.0" Properties=species:S:1:pos:R:3 relative_total_energy=-0.05589084 pbc="T T T"
Ar       0.02749900       0.01886010       0.02259223
Ar       2.47109989       2.46994364       2.46601158
2
Lattice="0.0 4.9 4.9 4.9 0.0 4.9 4.9 4.9 0.0" Properties=species:S:1:pos:R:3 relative_total_energy=-0.05596375 pbc="T T T"
Ar       0.03370803       0.02106471       0.03141130
Ar       2.47431659       2.47166021       2.47420757
2
Lattice="0.0 4.9 4.9 4.9 0.0 4.9 4.9 4.9 0.0" Properties=species:S:1:pos:R:3 relative_total_energy=-0.05600676 pbc="T T T"
Ar       0.04095748       0.02117520       0.04040726
Ar       2.48027102       2.48144095       2.47569364
2
Lattice="0.0 4.9 4.9 4.9 0.0 4.9 4.9 4.9 0.0" Properties=species:S:1:pos:R:3 relative_total_energy=-0.05602574 pbc="T T T"
Ar       0.04407550       0.02613224       0.04125286
Ar       2.49023684       2.48535198       2.47898541
2
Lattice="0.0 4.9 4.9 4.9 0.0 4.9 4.9 4.9 0.0" Properties=species:S:1:pos:R:3 relative_total_energy=-0.05602611 pbc="T T T"
Ar       0.05008849       0.03530671       0.04228607
Ar       2.49739569       2.48983749       2.47955068
2
Lattice="0.0 4.9 4.9 4.9 0.0 4.9 4.9 4.9 0.0" Properties=species:S:1:pos:R:3 relative_total_energy=-0.05602111 pbc="T T T"
Ar       0.05854422       0.04144200       0.05212841
Ar       2.49838397       2.49177676       2.47963349
2
Lattice="0.0 4.9 4.9 4.9 0.0 4.9 4.9 4.9 0.0" Properties=species:S:1:pos:R:3 relative_total_energy=-0.05604556 pbc="T T T"
Ar       0.06031185       0.04751623       0.05971547
Ar       2.50263252       2.49281914       2.48675191
2
Lattice="0.0 5.39 5.39 5.39 0.0 5.39 5.39 5.39 0.0" Properties=species:S:1:pos:R:3 relative_total_energy=-0.03040839 pbc="T T T"
Ar       5.39149271       5.39485596       0.00742052
Ar       2.70297634       2.70224659       2.70141480
2
Lattice="0.0 5.39 5.39 5.39 0.0 5.39 5.39 5.39 0.0" Properties=species:S:1:pos:R:3 relative_total_energy=-0.03042099 pbc="T T T"
Ar       5.39881804       5.39488614       0.01716144
Ar       2.70614679       2.70642561       2.70518058
2
Lattice="0.0 5.39 5.39 5.39 0.0 5.39 5.39 5.39 0.0" Properties=species:S:1:pos:R:3 relative_total_energy=-0.03047877 pbc="T T T"
Ar       5.40412040       5.39605286       0.02606723
Ar       2.71020541       2.71012272       2.71079604
2
Lattice="0.0 5.39 5.39 5.39 0.0 5.39 5.39 5.39 0.0" Properties=species:S:1:pos:R:3 relative_total_energy=-0.03055931 pbc="T T T"
Ar       5.40798352       5.40489721       0.03485045
Ar       2.71467361       2.71847221       2.71520339
2
Lattice="0.0 5.39 5.39 5.39 0.0 5.39 5.39 5.39 0.0" Properties=species:S:1:pos:R:3 relative_total_energy=-0.03060323 pbc="T T T"
Ar       0.02541078       0.01782920       0.04311860
Ar       2.71761660       2.72348157       2.71842074
2
Lattice="0.0 5.39 5.39 5.39 0.0 5.39 5.39 5.39 0.0" Properties=species:S:1:pos:R:3 relative_total_energy=-0.03060761 pbc="T T T"
Ar       0.03535942       0.02170100       0.05136018
Ar       2.71822422       2.72909488       2.72746365
2
Lattice="0.0 5.39 5.39 5.39 0.0 5.39 5.39 5.39 0.0" Properties=species:S:1:pos:R:3 relative_total_energy=-0.030602210000000005 pbc="T T T"
Ar       0.03965062       0.02664180       0.05526782
Ar       2.72395761       2.73617820       2.72766830
2
Lattice="0.0 5.39 5.39 5.39 0.0 5.39 5.39 5.39 0.0" Properties=species:S:1:pos:R:3 relative_total_energy=-0.0305956 pbc="T T T"
Ar       0.04537076       0.03184347       0.05722293
Ar       2.72763111       2.73941894       2.73057680
2
Lattice="0.0 5.39 5.39 5.39 0.0 5.39 5.39 5.39 0.0" Properties=species:S:1:pos:R:3 relative_total_energy=-0.030624820000000004 pbc="T T T"
Ar       0.04649263       0.03831271       0.06432593
Ar       2.73680775       2.74805706       2.73210665
2
Lattice="0.0 5.39 5.39 5.39 0.0 5.39 5.39 5.39 0.0" Properties=species:S:1:pos:R:3 relative_total_energy=-0.03066097 pbc="T T T"
Ar       0.05430150       0.04121286       0.07382694
Ar       2.74280655       2.74813548       2.73736567
