# generated using pymatgen
data_VPO5
_symmetry_space_group_name_H-M   P4/n
_cell_length_a   6.02499407
_cell_length_b   6.02499407
_cell_length_c   4.31084960
_cell_angle_alpha   90.00000000
_cell_angle_beta   90.00000000
_cell_angle_gamma   90.00000000
_symmetry_Int_Tables_number   85
_chemical_formula_structural   VPO5
_chemical_formula_sum   'V2 P2 O10'
_cell_volume   156.48622675
_cell_formula_units_Z   2
loop_
 _symmetry_equiv_pos_site_id
 _symmetry_equiv_pos_as_xyz
  1  'x, y, z'
  2  '-y+1/2, x+1/2, z'
  3  '-x, -y, z'
  4  'y+1/2, -x+1/2, z'
  5  '-x+1/2, -y+1/2, -z'
  6  'y, -x, -z'
  7  'x+1/2, y+1/2, -z'
  8  '-y, x, -z'
loop_
 _atom_type_symbol
 _atom_type_oxidation_number
  V5+  5.0
  P5+  5.0
  O2-  -2.0
loop_
 _atom_site_type_symbol
 _atom_site_label
 _atom_site_symmetry_multiplicity
 _atom_site_fract_x
 _atom_site_fract_y
 _atom_site_fract_z
 _atom_site_occupancy
  V5+  V0  2  0.00000000  0.50000000  0.85220026  1
  P5+  P1  2  0.00000000  0.00000000  0.50000000  1
  O2-  O2  8  0.04964054  0.80034549  0.70629468  1
  O2-  O3  2  0.00000000  0.50000000  0.16263055  1
