data_image0
_chemical_formula_structural       V2P2O10
_chemical_formula_sum              "V2 P2 O10"
_cell_length_a       6.02499407
_cell_length_b       6.02499407
_cell_length_c       4.3108496
_cell_angle_alpha    90.0
_cell_angle_beta     90.0
_cell_angle_gamma    90.0

_space_group_name_H-M_alt    "P 1"
_space_group_IT_number       1

loop_
  _space_group_symop_operation_xyz
  'x, y, z'

loop_
  _atom_site_type_symbol
  _atom_site_label
  _atom_site_symmetry_multiplicity
  _atom_site_fract_x
  _atom_site_fract_y
  _atom_site_fract_z
  _atom_site_occupancy
  V   V1        1.0  0.0  0.5  0.8522002600000005  1.0000
  V   V2        1.0  0.5  0.0  0.14779973999999985  1.0000
  P   P1        1.0  0.0  0.0  0.5  1.0000
  P   P2        1.0  0.5  0.5  0.5  1.0000
  O   O1        1.0  0.04964054  0.8003454899999999  0.70629468  1.0000
  O   O2        1.0  0.6996545100000001  0.54964054  0.70629468  1.0000
  O   O3        1.0  0.95035946  0.19965451000000012  0.70629468  1.0000
  O   O4        1.0  0.30034548999999977  0.45035946000000004  0.70629468  1.0000
  O   O5        1.0  0.45035946000000004  0.6996545100000001  0.29370532000000016  1.0000
  O   O6        1.0  0.8003454899999999  0.95035946  0.29370532000000016  1.0000
  O   O7        1.0  0.54964054  0.30034548999999977  0.29370532000000016  1.0000
  O   O8        1.0  0.19965451000000012  0.04964054  0.29370532000000016  1.0000
  O   O9        1.0  0.0  0.5  0.16263055  1.0000
  O   O10       1.0  0.5  0.0  0.8373694500000003  1.0000
